Version 4
SHEET 1 880 680
WIRE 0 -80 -176 -80
WIRE 160 -80 0 -80
WIRE 288 -80 240 -80
WIRE 288 -64 288 -80
WIRE 0 -48 0 -80
WIRE -176 -32 -176 -80
WIRE 288 16 192 16
WIRE 192 64 192 16
WIRE 0 112 0 32
WIRE 128 112 0 112
WIRE 0 144 0 112
WIRE 128 144 128 112
WIRE 144 144 128 144
WIRE 608 144 608 112
WIRE -176 272 -176 48
WIRE 0 272 0 224
WIRE 0 272 -176 272
WIRE 48 272 0 272
WIRE 192 272 192 160
WIRE 192 272 48 272
WIRE 48 288 48 272
FLAG 48 288 0
FLAG 608 144 0
FLAG 608 32 Vlight
SYMBOL voltage -176 -48 R0
WINDOW 123 0 0 Left 2
WINDOW 39 0 0 Left 2
SYMATTR InstName V2
SYMATTR Value 3
SYMBOL voltage 608 16 R0
WINDOW 123 0 0 Left 2
WINDOW 39 0 0 Left 2
SYMATTR InstName V1
SYMATTR Value SINE(20 15 1)
SYMBOL res 16 48 R180
WINDOW 0 36 76 Left 2
WINDOW 3 36 40 Left 2
SYMATTR InstName R1
SYMATTR Value R=V(Vlight)*1000
SYMBOL nmos 144 64 R0
SYMATTR InstName M1
SYMATTR Value IRF7811AV
SYMBOL ind 272 -80 R0
SYMATTR InstName L1
SYMATTR Value 22µH
SYMBOL res -16 128 R0
SYMATTR InstName R2
SYMATTR Value 30k
SYMBOL res 256 -96 R90
WINDOW 0 0 56 VBottom 2
WINDOW 3 32 56 VTop 2
SYMATTR InstName R3
SYMATTR Value 20
TEXT -208 312 Left 2 !.tran 5
